<?xml version='1.0' encoding='UTF-8' standalone='yes' ?><hierarchy rotation="0"><node index="0" text="" resource-id="" class="android.widget.FrameLayout" package="id.cassy.kasir.debug" content-desc="" checkable="false" checked="false" clickable="false" enabled="true" focusable="false" focused="false" scrollable="false" long-clickable="false" password="false" selected="false" bounds="[0,0][1080,2400]" drawing-order="0" hint=""><node index="0" text="" resource-id="" class="android.widget.LinearLayout" package="id.cassy.kasir.debug" content-desc="" checkable="false" checked="false" clickable="false" enabled="true" focusable="false" focused="false" scrollable="false" long-clickable="false" password="false" selected="false" bounds="[0,0][1080,2400]" drawing-order="2" hint=""><node index="0" text="" resource-id="android:id/content" class="android.widget.FrameLayout" package="id.cassy.kasir.debug" content-desc="" checkable="false" checked="false" clickable="false" enabled="true" focusable="false" focused="false" scrollable="false" long-clickable="false" password="false" selected="false" bounds="[0,0][1080,2400]" drawing-order="2" hint=""><node index="0" text="" resource-id="" class="androidx.compose.ui.platform.ComposeView" package="id.cassy.kasir.debug" content-desc="" checkable="false" checked="false" clickable="false" enabled="true" focusable="false" focused="false" scrollable="false" long-clickable="false" password="false" selected="false" bounds="[0,0][1080,2400]" drawing-order="1" hint=""><node index="0" text="" resource-id="" class="android.view.View" package="id.cassy.kasir.debug" content-desc="" checkable="false" checked="false" clickable="false" enabled="true" focusable="false" focused="false" scrollable="false" long-clickable="false" password="false" selected="false" bounds="[0,0][1080,2400]" drawing-order="0" hint=""><node index="0" text="" resource-id="" class="android.view.View" package="id.cassy.kasir.debug" content-desc="" checkable="false" checked="false" clickable="false" enabled="true" focusable="false" focused="false" scrollable="false" long-clickable="false" password="false" selected="false" bounds="[0,0][1080,2400]" drawing-order="0" hint=""><node index="0" text="" resource-id="" class="android.view.View" package="id.cassy.kasir.debug" content-desc="" checkable="false" checked="false" clickable="false" enabled="true" focusable="false" focused="false" scrollable="false" long-clickable="false" password="false" selected="false" bounds="[0,0][1080,2400]" drawing-order="0" hint=""><node index="0" text="" resource-id="" class="android.view.View" package="id.cassy.kasir.debug" content-desc="" checkable="false" checked="false" clickable="false" enabled="true" focusable="false" focused="false" scrollable="false" long-clickable="false" password="false" selected="false" bounds="[0,0][1080,2400]" drawing-order="0" hint=""><node index="0" text="" resource-id="" class="android.view.View" package="id.cassy.kasir.debug" content-desc="" checkable="false" checked="false" clickable="false" enabled="true" focusable="false" focused="false" scrollable="true" long-clickable="false" password="false" selected="false" bounds="[0,63][1080,2337]" drawing-order="0" hint=""><node index="0" text="" resource-id="" class="android.view.View" package="id.cassy.kasir.debug" content-desc="" checkable="false" checked="false" clickable="false" enabled="true" focusable="false" focused="false" scrollable="false" long-clickable="false" password="false" selected="false" bounds="[42,63][524,156]" drawing-order="0" hint=""><node index="0" text="Rp18000" resource-id="" class="android.widget.TextView" package="id.cassy.kasir.debug" content-desc="" checkable="false" checked="false" clickable="false" enabled="true" focusable="false" focused="false" scrollable="false" long-clickable="false" password="false" selected="false" bounds="[84,63][339,114]" drawing-order="0" hint="" /></node><node index="1" text="" resource-id="" class="android.view.View" package="id.cassy.kasir.debug" content-desc="" checkable="false" checked="false" clickable="false" enabled="true" focusable="false" focused="false" scrollable="false" long-clickable="false" password="false" selected="false" bounds="[556,63][1038,235]" drawing-order="1" hint=""><node index="0" text="Tersimpan Lokal" resource-id="" class="android.widget.TextView" package="id.cassy.kasir.debug" content-desc="" checkable="false" checked="false" clickable="false" enabled="true" focusable="false" focused="false" scrollable="false" long-clickable="false" password="false" selected="false" bounds="[598,63][996,193]" drawing-order="0" hint="" /></node><node index="2" text="" resource-id="" class="android.view.View" package="id.cassy.kasir.debug" content-desc="" checkable="false" checked="false" clickable="false" enabled="true" focusable="false" focused="false" scrollable="false" long-clickable="false" password="false" selected="false" bounds="[42,277][1038,803]" drawing-order="2" hint=""><node index="0" text="Keranjang" resource-id="" class="android.widget.TextView" package="id.cassy.kasir.debug" content-desc="" checkable="false" checked="false" clickable="false" enabled="true" focusable="false" focused="false" scrollable="false" long-clickable="false" password="false" selected="false" bounds="[42,277][328,350]" drawing-order="0" hint="" /><node index="1" text="" resource-id="" class="android.view.View" package="id.cassy.kasir.debug" content-desc="" checkable="false" checked="false" clickable="false" enabled="true" focusable="false" focused="false" scrollable="false" long-clickable="false" password="false" selected="false" bounds="[42,382][1038,728]" drawing-order="1" hint=""><node index="0" text="Kopi Hitam" resource-id="" class="android.widget.TextView" package="id.cassy.kasir.debug" content-desc="" checkable="false" checked="false" clickable="false" enabled="true" focusable="false" focused="false" scrollable="false" long-clickable="false" password="false" selected="false" bounds="[84,424][318,480]" drawing-order="0" hint="" /><node index="1" text="1 x Rp18000" resource-id="" class="android.widget.TextView" package="id.cassy.kasir.debug" content-desc="" checkable="false" checked="false" clickable="false" enabled="true" focusable="false" focused="false" scrollable="false" long-clickable="false" password="false" selected="false" bounds="[84,491][282,534]" drawing-order="1" hint="" /><node index="2" text="Rp18000" resource-id="" class="android.widget.TextView" package="id.cassy.kasir.debug" content-desc="" checkable="false" checked="false" clickable="false" enabled="true" focusable="false" focused="false" scrollable="false" long-clickable="false" password="false" selected="false" bounds="[805,424][996,480]" drawing-order="2" hint="" /><node index="3" text="" resource-id="" class="android.view.View" package="id.cassy.kasir.debug" content-desc="" checkable="false" checked="false" clickable="true" enabled="false" focusable="false" focused="false" scrollable="false" long-clickable="false" password="false" selected="false" bounds="[84,560][374,686]" drawing-order="3" hint=""><node index="0" text="Kurangi" resource-id="" class="android.widget.TextView" package="id.cassy.kasir.debug" content-desc="" checkable="false" checked="false" clickable="false" enabled="true" focusable="false" focused="false" scrollable="false" long-clickable="false" password="false" selected="false" bounds="[168,597][291,650]" drawing-order="0" hint="" /><node index="1" text="" resource-id="" class="android.widget.Button" package="id.cassy.kasir.debug" content-desc="" checkable="false" checked="false" clickable="false" enabled="true" focusable="false" focused="false" scrollable="false" long-clickable="false" password="false" selected="false" bounds="[84,560][374,686]" drawing-order="1" hint="" /></node><node index="4" text="" resource-id="" class="android.view.View" package="id.cassy.kasir.debug" content-desc="" checkable="false" checked="false" clickable="true" enabled="true" focusable="true" focused="false" scrollable="false" long-clickable="false" password="false" selected="false" bounds="[395,560][685,686]" drawing-order="4" hint=""><node index="0" text="Tambah" resource-id="" class="android.widget.TextView" package="id.cassy.kasir.debug" content-desc="" checkable="false" checked="false" clickable="false" enabled="true" focusable="false" focused="false" scrollable="false" long-clickable="false" password="false" selected="false" bounds="[476,597][605,650]" drawing-order="0" hint="" /><node index="1" text="" resource-id="" class="android.widget.Button" package="id.cassy.kasir.debug" content-desc="" checkable="false" checked="false" clickable="false" enabled="true" focusable="false" focused="false" scrollable="false" long-clickable="false" password="false" selected="false" bounds="[395,560][685,686]" drawing-order="1" hint="" /></node><node index="5" text="" resource-id="" class="android.view.View" package="id.cassy.kasir.debug" content-desc="" checkable="false" checked="false" clickable="true" enabled="true" focusable="true" focused="false" scrollable="false" long-clickable="false" password="false" selected="false" bounds="[706,560][996,686]" drawing-order="5" hint=""><node index="0" text="Hapus" resource-id="" class="android.widget.TextView" package="id.cassy.kasir.debug" content-desc="" checkable="false" checked="false" clickable="false" enabled="true" focusable="false" focused="false" scrollable="false" long-clickable="false" password="false" selected="false" bounds="[799,597][903,650]" drawing-order="0" hint="" /><node index="1" text="" resource-id="" class="android.widget.Button" package="id.cassy.kasir.debug" content-desc="" checkable="false" checked="false" clickable="false" enabled="true" focusable="false" focused="false" scrollable="false" long-clickable="false" password="false" selected="false" bounds="[706,560][996,686]" drawing-order="1" hint="" /></node></node><node index="2" text="1 item" resource-id="" class="android.widget.TextView" package="id.cassy.kasir.debug" content-desc="" checkable="false" checked="false" clickable="false" enabled="true" focusable="false" focused="false" scrollable="false" long-clickable="false" password="false" selected="false" bounds="[42,760][142,803]" drawing-order="2" hint="" /></node><node index="3" text="" resource-id="" class="android.view.View" package="id.cassy.kasir.debug" content-desc="" checkable="false" checked="false" clickable="false" enabled="true" focusable="false" focused="false" scrollable="false" long-clickable="false" password="false" selected="false" bounds="[42,845][1038,1632]" drawing-order="3" hint=""><node index="0" text="Pembayaran" resource-id="" class="android.widget.TextView" package="id.cassy.kasir.debug" content-desc="" checkable="false" checked="false" clickable="false" enabled="true" focusable="false" focused="false" scrollable="false" long-clickable="false" password="false" selected="false" bounds="[42,845][395,918]" drawing-order="0" hint="" /><node index="1" text="" resource-id="" class="android.view.View" package="id.cassy.kasir.debug" content-desc="" checkable="false" checked="false" clickable="true" enabled="true" focusable="true" focused="false" scrollable="false" long-clickable="false" password="false" selected="false" bounds="[757,846][1038,972]" drawing-order="1" hint=""><node index="0" text="Sembunyikan" resource-id="" class="android.widget.TextView" package="id.cassy.kasir.debug" content-desc="" checkable="false" checked="false" clickable="false" enabled="true" focusable="false" focused="false" scrollable="false" long-clickable="false" password="false" selected="false" bounds="[789,882][1006,935]" drawing-order="0" hint="" /><node index="1" text="" resource-id="" class="android.widget.Button" package="id.cassy.kasir.debug" content-desc="" checkable="false" checked="false" clickable="false" enabled="true" focusable="false" focused="false" scrollable="false" long-clickable="false" password="false" selected="false" bounds="[757,856][1038,961]" drawing-order="1" hint="" /></node><node index="2" text="" resource-id="" class="android.view.View" package="id.cassy.kasir.debug" content-desc="" checkable="false" checked="false" clickable="false" enabled="true" focusable="false" focused="false" scrollable="false" long-clickable="false" password="false" selected="false" bounds="[42,1003][1038,1632]" drawing-order="2" hint=""><node index="0" text="Subtotal" resource-id="" class="android.widget.TextView" package="id.cassy.kasir.debug" content-desc="" checkable="false" checked="false" clickable="false" enabled="true" focusable="false" focused="false" scrollable="false" long-clickable="false" password="false" selected="false" bounds="[84,1045][241,1094]" drawing-order="0" hint="" /><node index="1" text="Rp18000" resource-id="" class="android.widget.TextView" package="id.cassy.kasir.debug" content-desc="" checkable="false" checked="false" clickable="false" enabled="true" focusable="false" focused="false" scrollable="false" long-clickable="false" password="false" selected="false" bounds="[826,1045][996,1094]" drawing-order="1" hint="" /><node index="2" text="Potongan" resource-id="" class="android.widget.TextView" package="id.cassy.kasir.debug" content-desc="" checkable="false" checked="false" clickable="false" enabled="true" focusable="false" focused="false" scrollable="false" long-clickable="false" password="false" selected="false" bounds="[84,1131][266,1180]" drawing-order="2" hint="" /><node index="3" text="Rp0" resource-id="" class="android.widget.TextView" package="id.cassy.kasir.debug" content-desc="" checkable="false" checked="false" clickable="false" enabled="true" focusable="false" focused="false" scrollable="false" long-clickable="false" password="false" selected="false" bounds="[922,1131][996,1180]" drawing-order="3" hint="" /><node index="4" text="Pajak" resource-id="" class="android.widget.TextView" package="id.cassy.kasir.debug" content-desc="" checkable="false" checked="false" clickable="false" enabled="true" focusable="false" focused="false" scrollable="false" long-clickable="false" password="false" selected="false" bounds="[84,1217][188,1266]" drawing-order="4" hint="" /><node index="5" text="Rp0" resource-id="" class="android.widget.TextView" package="id.cassy.kasir.debug" content-desc="" checkable="false" checked="false" clickable="false" enabled="true" focusable="false" focused="false" scrollable="false" long-clickable="false" password="false" selected="false" bounds="[922,1217][996,1266]" drawing-order="5" hint="" /><node index="6" text="Total" resource-id="" class="android.widget.TextView" package="id.cassy.kasir.debug" content-desc="" checkable="false" checked="false" clickable="false" enabled="true" focusable="false" focused="false" scrollable="false" long-clickable="false" password="false" selected="false" bounds="[84,1343][226,1416]" drawing-order="6" hint="" /><node index="7" text="Rp18000" resource-id="" class="android.widget.TextView" package="id.cassy.kasir.debug" content-desc="" checkable="false" checked="false" clickable="false" enabled="true" focusable="false" focused="false" scrollable="false" long-clickable="false" password="false" selected="false" bounds="[741,1343][996,1416]" drawing-order="7" hint="" /><node index="8" text="" resource-id="" class="android.view.View" package="id.cassy.kasir.debug" content-desc="" checkable="false" checked="false" clickable="true" enabled="true" focusable="true" focused="false" scrollable="false" long-clickable="false" password="false" selected="false" bounds="[84,1453][996,1590]" drawing-order="8" hint=""><node index="0" text="Bayar sekarang" resource-id="" class="android.widget.TextView" package="id.cassy.kasir.debug" content-desc="" checkable="false" checked="false" clickable="false" enabled="true" focusable="false" focused="false" scrollable="false" long-clickable="false" password="false" selected="false" bounds="[416,1495][664,1548]" drawing-order="0" hint="" /><node index="1" text="" resource-id="" class="android.widget.Button" package="id.cassy.kasir.debug" content-desc="" checkable="false" checked="false" clickable="false" enabled="true" focusable="false" focused="false" scrollable="false" long-clickable="false" password="false" selected="false" bounds="[84,1453][996,1590]" drawing-order="1" hint="" /></node></node></node><node index="4" text="Katalog produk" resource-id="" class="android.widget.TextView" package="id.cassy.kasir.debug" content-desc="" checkable="false" checked="false" clickable="false" enabled="true" focusable="false" focused="false" scrollable="false" long-clickable="false" password="false" selected="false" bounds="[42,1674][472,1747]" drawing-order="4" hint="" /><node index="5" text="" resource-id="" class="android.view.View" package="id.cassy.kasir.debug" content-desc="" checkable="false" checked="false" clickable="false" enabled="true" focusable="false" focused="false" scrollable="false" long-clickable="false" password="false" selected="false" bounds="[42,1789][1038,2157]" drawing-order="5" hint=""><node index="0" text="Kopi Hitam" resource-id="" class="android.widget.TextView" package="id.cassy.kasir.debug" content-desc="" checkable="false" checked="false" clickable="false" enabled="true" focusable="false" focused="false" scrollable="false" long-clickable="false" password="false" selected="false" bounds="[84,1831][318,1887]" drawing-order="0" hint="" /><node index="1" text="Rp18000" resource-id="" class="android.widget.TextView" package="id.cassy.kasir.debug" content-desc="" checkable="false" checked="false" clickable="false" enabled="true" focusable="false" focused="false" scrollable="false" long-clickable="false" password="false" selected="false" bounds="[84,1898][254,1947]" drawing-order="1" hint="" /><node index="2" text="" resource-id="" class="android.view.View" package="id.cassy.kasir.debug" content-desc="" checkable="false" checked="false" clickable="false" enabled="true" focusable="false" focused="false" scrollable="false" long-clickable="false" password="false" selected="false" bounds="[810,1831][996,1916]" drawing-order="2" hint=""><node index="0" text="Stok 40" resource-id="" class="android.widget.TextView" package="id.cassy.kasir.debug" content-desc="" checkable="false" checked="false" clickable="false" enabled="true" focusable="false" focused="false" scrollable="false" long-clickable="false" password="false" selected="false" bounds="[842,1852][964,1895]" drawing-order="0" hint="" /></node><node index="3" text="" resource-id="" class="android.view.View" package="id.cassy.kasir.debug" content-desc="" checkable="false" checked="false" clickable="true" enabled="true" focusable="true" focused="false" scrollable="false" long-clickable="false" password="false" selected="false" bounds="[84,1990][529,2116]" drawing-order="3" hint=""><node index="0" text="Detail" resource-id="" class="android.widget.TextView" package="id.cassy.kasir.debug" content-desc="" checkable="false" checked="false" clickable="false" enabled="true" focusable="false" focused="false" scrollable="false" long-clickable="false" password="false" selected="false" bounds="[261,2026][353,2079]" drawing-order="0" hint="" /><node index="1" text="" resource-id="" class="android.widget.Button" package="id.cassy.kasir.debug" content-desc="" checkable="false" checked="false" clickable="false" enabled="true" focusable="false" focused="false" scrollable="false" long-clickable="false" password="false" selected="false" bounds="[84,2000][529,2105]" drawing-order="1" hint="" /></node><node index="4" text="" resource-id="" class="android.view.View" package="id.cassy.kasir.debug" content-desc="" checkable="false" checked="false" clickable="true" enabled="true" focusable="true" focused="false" scrollable="false" long-clickable="false" password="false" selected="false" bounds="[550,1990][996,2116]" drawing-order="4" hint=""><node index="0" text="Tambah" resource-id="" class="android.widget.TextView" package="id.cassy.kasir.debug" content-desc="" checkable="false" checked="false" clickable="false" enabled="true" focusable="false" focused="false" scrollable="false" long-clickable="false" password="false" selected="false" bounds="[709,2026][838,2079]" drawing-order="0" hint="" /><node index="1" text="" resource-id="" class="android.widget.Button" package="id.cassy.kasir.debug" content-desc="" checkable="false" checked="false" clickable="false" enabled="true" focusable="false" focused="false" scrollable="false" long-clickable="false" password="false" selected="false" bounds="[550,2000][996,2105]" drawing-order="1" hint="" /></node></node><node index="6" text="" resource-id="" class="android.view.View" package="id.cassy.kasir.debug" content-desc="" checkable="false" checked="false" clickable="false" enabled="true" focusable="false" focused="false" scrollable="false" long-clickable="false" password="false" selected="false" bounds="[42,2199][1038,2337]" drawing-order="6" hint=""><node index="0" text="Es Teh" resource-id="" class="android.widget.TextView" package="id.cassy.kasir.debug" content-desc="" checkable="false" checked="false" clickable="false" enabled="true" focusable="false" focused="false" scrollable="false" long-clickable="false" password="false" selected="false" bounds="[84,2241][225,2297]" drawing-order="0" hint="" /><node index="1" text="Rp8000" resource-id="" class="android.widget.TextView" package="id.cassy.kasir.debug" content-desc="" checkable="false" checked="false" clickable="false" enabled="true" focusable="false" focused="false" scrollable="false" long-clickable="false" password="false" selected="false" bounds="[84,2308][230,2337]" drawing-order="1" hint="" /><node index="2" text="" resource-id="" class="android.view.View" package="id.cassy.kasir.debug" content-desc="" checkable="false" checked="false" clickable="false" enabled="true" focusable="false" focused="false" scrollable="false" long-clickable="false" password="false" selected="false" bounds="[810,2241][996,2326]" drawing-order="2" hint=""><node index="0" text="Stok 60" resource-id="" class="android.widget.TextView" package="id.cassy.kasir.debug" content-desc="" checkable="false" checked="false" clickable="false" enabled="true" focusable="false" focused="false" scrollable="false" long-clickable="false" password="false" selected="false" bounds="[842,2262][964,2305]" drawing-order="0" hint="" /></node></node></node></node></node></node></node></node></node></node><node index="1" text="" resource-id="" class="android.widget.FrameLayout" package="id.cassy.kasir.debug" content-desc="" checkable="false" checked="false" clickable="false" enabled="true" focusable="false" focused="false" scrollable="false" long-clickable="false" password="false" selected="false" bounds="[0,0][1080,2400]" drawing-order="3" hint=""><node index="0" text="" resource-id="" class="android.view.View" package="id.cassy.kasir.debug" content-desc="" checkable="false" checked="false" clickable="false" enabled="true" focusable="false" focused="false" scrollable="false" long-clickable="false" password="false" selected="false" bounds="[0,0][1080,63]" drawing-order="1" hint="" /></node></node></hierarchy>